tests/test_cim/model/Master.dss
Clear

New Circuit.source Bus1=sourcebus.1.2.3 BasekV=115.00000000000001 pu=1.02 Angle=296.0881345217841 Phases=3 Z1=[0.16037668, 0.64150673] Z0=[0.17960358, 0.53881075]
redirect LineCodes.dss
redirect Transformers.dss
redirect Capacitors.dss
redirect Lines.dss
redirect Loads.dss
redirect Switches.dss
redirect RegControllers.dss
New EnergyMeter.SourceMeter element=Transformer.sub
Set Voltagebases=[0.48, 115.00000000000001, 4.16]
calcv
Solve
redirect BusCoords.dss
Clear

New Circuit.source Bus1=sourcebus.1.2.3 BasekV=115.00000000000001 pu=1.02 Angle=296.0881345217841 Phases=3 Z1=[0.16037668, 0.64150673] Z0=[0.17960358, 0.53881075]
redirect LineCodes.dss
redirect Transformers.dss
redirect Capacitors.dss
redirect Lines.dss
redirect Loads.dss
redirect Switches.dss
redirect RegControllers.dss
New EnergyMeter.SourceMeter element=Transformer.sub
Set Voltagebases=[0.48, 115.00000000000001, 4.16]
calcv
Solve
redirect BusCoords.dss
