tests/test_cim/model/LineCodes.dss
new LineCode.mtx601 NPhases=3 Units=km RMatrix=(0.21530512000000002 0.096933906 0.098176648 |0.096933906 0.20971278 0.095380478 |0.098176648 0.095380478 0.21213613 ) XMatrix=(0.63249374 0.31174193 0.26321284 |0.31174193 0.65107274 0.23916577 |0.26321284 0.23916577 0.64299491 ) CMatrix=(1.7398393435107944 -0.37282270888779195 -0.37282270888779195 |-0.37282270888779195 1.7398393435107944 -0.37282270888779195 |-0.37282270888779195 -0.37282270888779195 1.7398393435107944 ) NormAmps=400.0
new LineCode.mtx602 NPhases=3 Units=km RMatrix=(0.46764396 0.098176648 0.096933906 |0.098176648 0.46447497 0.095380478 |0.096933906 0.095380478 0.46205162 ) XMatrix=(0.7340879299999999 0.26321284 0.31174193 |0.26321284 0.7445891 0.23916577 |0.31174193 0.23916577 0.75260479 ) CMatrix=(1.7398393435107944 -0.37282270888779195 -0.37282270888779195 |-0.37282270888779195 1.7398393435107944 -0.37282270888779195 |-0.37282270888779195 -0.37282270888779195 1.7398393435107944 ) NormAmps=400.0
new LineCode.mtx603 NPhases=2 Units=km RMatrix=(0.82257118 0.12837529 |0.12837529 0.8260508599999999 ) XMatrix=(0.84313857 0.28527151 |0.28527151 0.83704913 ) CMatrix=(1.7398393435107944 -0.37282270888779195 |-0.37282270888779195 1.7398393435107944 ) NormAmps=400.0
new LineCode.mtx606 NPhases=3 Units=km RMatrix=(0.49195262000000006 0.19789181 0.17612766000000002 |0.19789181 0.48569417 0.19789181 |0.17612766000000002 0.19789181 0.49195262000000006 ) XMatrix=(0.2723793 0.017201915999999998 -0.011445906 |0.017201915999999998 0.24649608999999997 0.017201915999999998 |-0.011445906 0.017201915999999998 0.2723793 ) CMatrix=(238.57422523473917 0.0 0.0 |0.0 238.57422523473917 0.0 |0.0 0.0 238.57422523473917 ) NormAmps=400.0
new LineCode.mtx604 NPhases=2 Units=km RMatrix=(0.82257118 0.12837529 |0.12837529 0.8260508599999999 ) XMatrix=(0.84313857 0.28527151 |0.28527151 0.83704913 ) CMatrix=(1.7398393435107944 -0.37282270888779195 |-0.37282270888779195 1.7398393435107944 ) NormAmps=400.0
new LineCode.mtx605 NPhases=1 Units=km RMatrix=(0.82592659 ) XMatrix=(0.8372976799999999 ) CMatrix=(1.7398393435107944 ) NormAmps=400.0
new LineCode.mtx607 NPhases=1 Units=km RMatrix=(0.83419083 ) XMatrix=(0.31839059999999997 ) CMatrix=(146.6436005975864 ) NormAmps=400.0
