tests/test_cim/model/Transformers.dss
new XfmrCode.sub_equipment Phases=3 Windings=2 Conns=(delta, wye) kVs=[115.00000000000001, 4.16] kVAs=[5000.0, 5000.0] Taps=[1.0, 1.0] %Rs=[0.0005, 0.0005] %LoadLoss=0.001 %NoLoadLoss=0.0 X12=0.008 X23=0.008 Wdg=1 MaxTap=1.1 MinTap=0.9 NumTaps=32 Wdg=2 MaxTap=1.1 MinTap=0.9 NumTaps=32
new Transformer.sub Phases=3 Windings=2 Buses=(sourcebus.1.2.3, 650.1.2.3) XfmrCode=sub_equipment
new XfmrCode.xfm1_equipment Phases=3 Windings=2 Conns=(wye, wye) kVs=[4.16, 0.48] kVAs=[500.0, 500.0] Taps=[1.0, 1.0] %Rs=[0.55, 0.55] %LoadLoss=1.1 %NoLoadLoss=0.0 X12=2.0 X23=2.0 Wdg=1 MaxTap=1.1 MinTap=0.9 NumTaps=32 Wdg=2 MaxTap=1.1 MinTap=0.9 NumTaps=32
new Transformer.xfm1 Phases=3 Windings=2 Buses=(633.1.2.3, 634.1.2.3) XfmrCode=xfm1_equipment
new XfmrCode.reg1_equipment Phases=1 Windings=2 Conns=(wye, wye) kVs=[2.4, 2.4] kVAs=[1666.0, 1666.0] Taps=[1.0, 1.0] %Rs=[0.005000000067708333, 0.005000000067708333] %LoadLoss=0.010000000135416666 %NoLoadLoss=0.0 X12=1.0 X23=1.0 Wdg=1 MaxTap=1.1 MinTap=0.9 NumTaps=32 Wdg=2 MaxTap=1.1 MinTap=0.9 NumTaps=32
new Transformer.reg1 Phases=1 Windings=2 Buses=(650.1, rg60.1) XfmrCode=reg1_equipment
new XfmrCode.reg2_equipment Phases=1 Windings=2 Conns=(wye, wye) kVs=[2.4, 2.4] kVAs=[1666.0, 1666.0] Taps=[1.0, 1.0] %Rs=[0.005000000067708333, 0.005000000067708333] %LoadLoss=0.010000000135416666 %NoLoadLoss=0.0 X12=1.0 X23=1.0 Wdg=1 MaxTap=1.1 MinTap=0.9 NumTaps=32 Wdg=2 MaxTap=1.1 MinTap=0.9 NumTaps=32
new Transformer.reg2 Phases=1 Windings=2 Buses=(650.2, rg60.2) XfmrCode=reg2_equipment
new XfmrCode.reg3_equipment Phases=1 Windings=2 Conns=(wye, wye) kVs=[2.4, 2.4] kVAs=[1666.0, 1666.0] Taps=[1.0, 1.0] %Rs=[0.005000000067708333, 0.005000000067708333] %LoadLoss=0.010000000135416666 %NoLoadLoss=0.0 X12=1.0 X23=1.0 Wdg=1 MaxTap=1.1 MinTap=0.9 NumTaps=32 Wdg=2 MaxTap=1.1 MinTap=0.9 NumTaps=32
new Transformer.reg3 Phases=1 Windings=2 Buses=(650.3, rg60.3) XfmrCode=reg3_equipment
new XfmrCode.sub_equipment Phases=3 Windings=2 Conns=(delta, wye) kVs=[115.00000000000001, 4.16] kVAs=[5000.0, 5000.0] Taps=[1.0, 1.0] %Rs=[0.0005, 0.0005] %LoadLoss=0.001 %NoLoadLoss=0.0 X12=0.008 X23=0.008 Wdg=1 MaxTap=1.1 MinTap=0.9 NumTaps=32 Wdg=2 MaxTap=1.1 MinTap=0.9 NumTaps=32
new Transformer.sub Phases=3 Windings=2 Buses=(sourcebus.1.2.3, 650.1.2.3) XfmrCode=sub_equipment
new XfmrCode.xfm1_equipment Phases=3 Windings=2 Conns=(wye, wye) kVs=[4.16, 0.48] kVAs=[500.0, 500.0] Taps=[1.0, 1.0] %Rs=[0.55, 0.55] %LoadLoss=1.1 %NoLoadLoss=0.0 X12=2.0 X23=2.0 Wdg=1 MaxTap=1.1 MinTap=0.9 NumTaps=32 Wdg=2 MaxTap=1.1 MinTap=0.9 NumTaps=32
new Transformer.xfm1 Phases=3 Windings=2 Buses=(633.1.2.3, 634.1.2.3) XfmrCode=xfm1_equipment
new XfmrCode.reg1_equipment Phases=1 Windings=2 Conns=(wye, wye) kVs=[2.4, 2.4] kVAs=[1666.0, 1666.0] Taps=[1.0, 1.0] %Rs=[0.005000000067708333, 0.005000000067708333] %LoadLoss=0.010000000135416666 %NoLoadLoss=0.0 X12=1.0 X23=1.0 Wdg=1 MaxTap=1.1 MinTap=0.9 NumTaps=32 Wdg=2 MaxTap=1.1 MinTap=0.9 NumTaps=32
new Transformer.reg1 Phases=1 Windings=2 Buses=(650.1, rg60.1) XfmrCode=reg1_equipment
new XfmrCode.reg2_equipment Phases=1 Windings=2 Conns=(wye, wye) kVs=[2.4, 2.4] kVAs=[1666.0, 1666.0] Taps=[1.0, 1.0] %Rs=[0.005000000067708333, 0.005000000067708333] %LoadLoss=0.010000000135416666 %NoLoadLoss=0.0 X12=1.0 X23=1.0 Wdg=1 MaxTap=1.1 MinTap=0.9 NumTaps=32 Wdg=2 MaxTap=1.1 MinTap=0.9 NumTaps=32
new Transformer.reg2 Phases=1 Windings=2 Buses=(650.2, rg60.2) XfmrCode=reg2_equipment
new XfmrCode.reg3_equipment Phases=1 Windings=2 Conns=(wye, wye) kVs=[2.4, 2.4] kVAs=[1666.0, 1666.0] Taps=[1.0, 1.0] %Rs=[0.005000000067708333, 0.005000000067708333] %LoadLoss=0.010000000135416666 %NoLoadLoss=0.0 X12=1.0 X23=1.0 Wdg=1 MaxTap=1.1 MinTap=0.9 NumTaps=32 Wdg=2 MaxTap=1.1 MinTap=0.9 NumTaps=32
new Transformer.reg3 Phases=1 Windings=2 Buses=(650.3, rg60.3) XfmrCode=reg3_equipment
