tests/test_cim/model/Capacitors.dss
new Capacitor.cap1 Bus1=675.1.2.3 Phases=3 NumSteps=1 kvar=[600.0000002047999] kV=4.16 Conn=wye R=[0.0] XL=[0.0] States=[1]
new Capacitor.cap2 Bus1=611.3 Phases=1 NumSteps=1 kvar=[100.15402320989499] kV=2.4018475750577366 Conn=wye R=[0.0] XL=[0.0] States=[1]
new Capacitor.cap1 Bus1=675.1.2.3 Phases=3 NumSteps=1 kvar=[600.0000002047999] kV=4.16 Conn=wye R=[0.0] XL=[0.0] States=[1]
new Capacitor.cap2 Bus1=611.3 Phases=1 NumSteps=1 kvar=[100.15402320989499] kV=2.4018475750577366 Conn=wye R=[0.0] XL=[0.0] States=[1]
