tests/test_cim/model/Lines.dss
new Line.650632 Bus1=rg60.1.2.3 Bus2=632.1.2.3 LineCode=mtx601 Length=609.6 Phases=3 Units=m
new Line.632670 Bus1=632.1.2.3 Bus2=670.1.2.3 LineCode=mtx601 Length=203.3016 Phases=3 Units=m
new Line.670671 Bus1=670.1.2.3 Bus2=671.1.2.3 LineCode=mtx601 Length=406.2984 Phases=3 Units=m
new Line.671680 Bus1=671.1.2.3 Bus2=680.1.2.3 LineCode=mtx601 Length=304.8 Phases=3 Units=m
new Line.632633 Bus1=632.1.2.3 Bus2=633.1.2.3 LineCode=mtx602 Length=152.4 Phases=3 Units=m
new Line.632645 Bus1=632.3.2 Bus2=645.3.2 LineCode=mtx603 Length=152.4 Phases=2 Units=m
new Line.645646 Bus1=645.3.2 Bus2=646.3.2 LineCode=mtx603 Length=91.44 Phases=2 Units=m
new Line.692675 Bus1=692.1.2.3 Bus2=675.1.2.3 LineCode=mtx606 Length=152.4 Phases=3 Units=m
new Line.671684 Bus1=671.1.3 Bus2=684.1.3 LineCode=mtx604 Length=91.44 Phases=2 Units=m
new Line.684611 Bus1=684.3 Bus2=611.3 LineCode=mtx605 Length=91.44 Phases=1 Units=m
new Line.684652 Bus1=684.1 Bus2=652.1 LineCode=mtx607 Length=243.84 Phases=1 Units=m
